10
	Energy:     -27.4270335
C         -2.34842        3.96167        0.08970
C         -1.15247        3.34278        0.07943
C          0.20394        3.97874       -0.05134
H         -3.18212        3.26318        0.19641
H         -1.14229        2.26130        0.17607
H          0.78880        3.77934        0.85184
H          0.73295        3.53868       -0.90219
O         -2.65322        5.17799        0.00041
O          0.16400        5.38569       -0.24497
H         -0.80615        5.59860       -0.19535
10
	Energy:       5.9744785
C         -2.64105        3.27015        0.00000
H         -2.26034        4.30937       -0.00000
O         -3.91381        3.20257        0.00000
C         -1.75407        2.26990       -0.00000
H         -1.95199        1.17712       -0.00000
O         -0.39788        2.31337       -0.00000
C          0.36965        3.49023        0.00000
H          1.37290        3.05993       -0.00000
H          0.27308        4.10323        0.90375
H          0.27308        4.10323       -0.90375
11
	Energy:      29.4495367
C         -1.90246        2.30485        0.09124
C         -0.60226        1.52112        0.31814
C         -0.95668        3.49642       -0.11061
O          0.16003        2.74855        0.43846
H         -0.76757        3.78659       -1.14878
H         -1.18798        4.38168        0.48774
H         -0.56978        0.92864        1.23635
H         -0.25410        0.91862       -0.52662
H         -2.50935        2.39760        0.99938
O         -2.72682        1.92094       -1.02966
H         -3.15432        1.09118       -0.75565
11
	Energy:      -4.3542454
C         -2.08243        2.98057       -0.03890
C         -1.79898        4.28566       -0.08746
H         -3.11806        2.65373       -0.07536
H         -1.33112        2.20554        0.05172
H         -2.58132        5.03447       -0.17032
O         -0.58966        4.91412       -0.02929
C          0.57726        4.10932        0.05517
H          0.79590        3.65155       -0.91559
O          1.66226        4.94695        0.41774
H          1.46841        5.78412       -0.03624
H          0.49028        3.34032        0.82853
11
	Energy:      -2.1248334
C         -3.19571        2.39018        0.03042
C         -1.96400        2.89226        0.11031
O         -0.87404        2.07433        0.19826
C          0.35939        2.73893       -0.04287
O          1.29949        1.77437       -0.47948
H          0.27449        3.49932       -0.82724
H          0.72422        3.19806        0.88201
H          1.07018        0.98154        0.03455
H         -1.76732        3.95667        0.10737
H         -4.06235        3.03582       -0.05477
H         -3.35746        1.31668        0.04144
